 Abaqus/Standard 6.12-1                  DATE 07-1ÔÂ-2017 TIME 16:20:36
 SUMMARY OF JOB INFORMATION:
 STEP  INC ATT SEVERE EQUIL TOTAL  TOTAL      STEP       INC OF       DOF    IF
               DISCON ITERS ITERS  TIME/    TIME/LPF    TIME/LPF    MONITOR RIKS
               ITERS               FREQ
   1     1   1     0     1     1  0.100      0.100      0.1000    
   1     2   1     0     1     1  0.200      0.200      0.1000    
   1     3   1     0     1     1  0.350      0.350      0.1500    
   1     4   1     0     1     1  0.575      0.575      0.2250    
   1     5   1     0     1     1  0.913      0.913      0.3375    
   1     6   1     0     1     1  1.00       1.00       0.08750   
                          
 THE ANALYSIS HAS COMPLETED SUCCESSFULLY
